18
 
C                2.053797           -0.941044            0.037771
C                2.141854            0.178558            1.047479
N                2.018237            1.488076            0.442991
O                3.119633           -1.062432           -0.709858
O                1.063863           -1.645859           -0.130380
C                1.049363            1.669460           -0.619016
P               -0.691272            1.374329           -0.141576
O               -1.404173            2.774068           -0.057892
O               -0.781813            0.614995            1.170762
O               -1.312532            0.528171           -1.232078
H               -1.458083            3.152442            0.825654
Sr              -1.367478           -1.401829            0.090120
H                2.988201           -1.757126           -1.374785
H                2.918691            1.855089            0.170291
H                1.354997            0.026003            1.786229
H                3.109450            0.117331            1.548014
H                1.119357            2.698872           -0.976115
H                1.223055            1.032027           -1.502986