18
 
C               -2.585160            0.622615            0.243142
C               -1.973395            1.152154           -1.025885
N               -0.566519            0.808264           -1.172150
O               -2.174454           -0.671642            0.532482
O               -3.379020            1.172255            0.922944
C                0.365290            1.778184           -0.531739
P                1.640323            0.730920            0.209907
O                2.009635           -0.298618           -0.834961
O                0.956749            0.015915            1.358697
O                2.771771            1.729010            0.620564
Sr               0.175879           -1.644952           -0.112966
H                3.495998            1.386900            1.154665
H               -2.687091           -0.919828            1.319118
H               -0.330320            0.764598           -2.156544
H               -2.544722            0.705396           -1.847066
H               -2.167355            2.228477           -1.050079
H                0.748568            2.510548           -1.245024
H               -0.155544            2.317348            0.263146