18
 
C                0.733167            1.624704            0.078680
C               -0.432531            2.557859           -0.158873
N               -1.673835            1.883567            0.162409
O                1.577727            1.449650           -0.836105
O                0.765789            0.957198            1.151640
C               -2.045374            0.803774           -0.729564
P               -1.558720           -0.810984           -0.051849
O               -1.659721           -0.656661            1.499286
O               -0.228361           -1.338872           -0.503823
O               -2.717825           -1.776358           -0.462652
H               -1.311991            0.213841            1.776918
H               -2.472080           -2.690134           -0.639872
Sr               1.982864           -0.738606           -0.011783
H               -2.431070            2.537436            0.287746
H               -0.319579            3.418859            0.504684
H               -0.380584            2.912526           -1.196401
H               -3.132563            0.750075           -0.827550
H               -1.635786            0.906533           -1.745113