18
 
C               -2.543991            0.597259            0.143417
C               -1.515969            1.609762           -0.269802
N               -0.426843            1.012339           -1.024932
O               -3.679074            1.139686            0.487966
O               -2.334710           -0.603768            0.192646
C                0.880927            1.696144           -0.836245
P                1.982863            0.606193            0.120177
O                0.905782            0.198422            1.359357
O                3.173595            1.234626            0.661557
O                1.938734           -0.696730           -0.653452
H                1.212044            0.535016            2.208496
Sr              -0.077580           -1.600413           -0.104244
H               -4.298871            0.460868            0.799555
H               -0.663415            1.039046           -2.010065
H               -2.011561            2.444635           -0.776267
H               -1.125436            2.020200            0.668879
H                1.355329            1.866139           -1.804119
H                0.764483            2.673624           -0.362141