12
 
N               -0.843383            1.750538            0.062958
C                0.645693            1.585364            0.111420
P                1.030528           -0.174084           -0.145388
O                0.173293           -0.768369            1.197469
O                2.426851           -0.549311           -0.104421
O                0.005794           -0.602357           -1.190648
H                0.735488           -1.048201            1.927783
Ca              -1.748946           -0.572976           -0.023142
H               -1.075616            2.198143           -0.819778
H                1.142120            2.191685           -0.647642
H                1.027056            1.904245            1.081718
H               -1.126034            2.419248            0.773154