12
 
N               -0.742066            1.817093            0.010818
C                0.737093            1.584610           -0.058731
P                0.852916           -0.212242            0.004158
O                2.374507           -0.542900            0.021782
O                0.070674           -0.709747           -1.200497
O                0.055844           -0.632023            1.228129
H                2.643383           -1.467803            0.014750
Ca              -1.755925           -0.564726           -0.006394
H               -1.009109            2.467379           -0.720725
H                1.142770            1.967032           -0.995194
H                1.261846            2.069237            0.764732
H               -0.950406            2.292350            0.883282