12
 
N               -2.799945           -0.593259           -0.239649
C               -1.749125           -0.639454            0.764239
P               -0.346196            0.243197            0.063341
O                0.396122           -0.613757           -0.972214
O                0.731366            0.648440            1.065507
O               -0.988578            1.518770           -0.573764
Ca               2.299119           -0.283901           -0.056389
H               -1.900764            1.320855           -0.858583
H               -3.718922           -0.699245            0.167278
H               -2.057760           -0.078487            1.650125
H               -1.447326           -1.639768            1.097747
H               -2.681585           -1.311379           -0.943028