12
 
N                2.772798           -0.941949           -0.163266
C                1.793813           -0.513646            0.799348
P                0.366498            0.300615            0.061771
O                0.893071            1.568795           -0.716331
O               -0.730324            0.673385            1.066373
O               -0.322085           -0.596366           -0.966571
H                1.171304            2.316695           -0.177096
Ca              -2.242338           -0.368527           -0.044418
H                3.221940           -0.171349           -0.638507
H                1.425023           -1.366400            1.378851
H                2.241843            0.168046            1.529424
H                2.391419           -1.576663           -0.851870