12
 
N                2.804059           -0.863978           -0.196847
C                1.771525           -0.599906            0.766448
P                0.359832            0.284225            0.085075
O               -0.736773            0.601307            1.098177
O               -0.331967           -0.543582           -1.007996
O                0.883860            1.654810           -0.490424
Ca              -2.255594           -0.347282           -0.070249
H                1.464588            1.599978           -1.256382
H                3.405971           -0.083102           -0.404244
H                1.398860           -1.533230            1.203157
H                2.166791           -0.011999            1.598842
H                2.499662           -1.342377           -1.031336