12
 
N                3.609356           -1.022024           -0.185105
C                2.641884           -0.591845            0.791611
P                1.256185            0.314258            0.086006
O                0.236497            0.782715            1.111364
O                0.516009           -0.539474           -0.944289
O                1.855351            1.607460           -0.606660
Ba              -1.713389           -0.125517           -0.021669
H                2.340659            1.445159           -1.421834
H                4.220453           -0.289099           -0.511539
H                2.237200           -1.451584            1.336857
H                3.117012            0.046360            1.540990
H                3.212031           -1.536108           -0.958347