12
 
N               -0.588216            2.089149            0.000172
C               -1.910446            1.403393           -0.000921
P               -1.504570           -0.352166            0.000034
O               -0.650074           -0.609163            1.226655
O               -0.649876           -0.610348           -1.226202
O               -2.899618           -1.062513            0.000234
Ba               1.441328           -0.110929           -0.000030
H               -2.911915           -2.024779            0.000852
H               -0.531894            2.698268            0.808426
H               -2.497761            1.666151            0.879571
H               -2.495556            1.665342           -0.883109
H               -0.531971            2.701319           -0.805768