12
 
N               -3.138478           -0.836806            0.095190
C               -1.895910           -1.115759           -0.382689
P               -0.638614            0.364239            0.079120
O                0.570295           -0.111635           -0.683520
O               -0.679549            0.499096            1.530783
O               -1.303438            1.532251           -0.743769
Cu               2.285253           -0.211478            0.018668
H               -1.642699            2.246405           -0.189967
H               -3.797240           -0.293026           -0.446151
H               -1.406399           -1.952635            0.115101
H               -1.829776           -1.131635           -1.471184
H               -3.370665           -1.005350            1.065888