12
 
N               -0.947187            1.448566            0.016588
C                0.406332            1.416130           -0.619335
P                1.229404           -0.113177           -0.070867
O                1.363451            0.234186            1.463818
O                2.438951           -0.543670           -0.770554
O                0.078344           -1.159492           -0.226886
H                1.985644           -0.298162            1.975528
Cu              -1.590294           -0.428685            0.017608
H               -1.562634            2.100829           -0.464618
H                0.286868            1.365087           -1.702418
H                0.979999            2.309230           -0.368699
H               -0.866073            1.767585            0.981445