12
 
N               -1.056224            1.428105           -0.046928
C                0.355739            1.508531           -0.272520
P                1.131299           -0.125731           -0.000280
O                2.339620           -0.265039           -0.980320
O                0.123888           -1.210256           -0.144898
O                1.758463            0.073394            1.411534
H                2.238168           -0.894509           -1.704300
H                2.302475           -0.632109            1.782597
H               -1.493667            2.346172            0.015658
H                0.542813            1.805759           -1.318371
H                0.836225            2.279122            0.342422
Cu              -1.721108           -0.374179            0.019285