18
 
C               -2.498493           -0.384515           -0.268433
C               -1.862085           -1.074235            0.907492
N               -0.484935           -0.667013            1.155890
O               -2.136708            0.959700           -0.357705
O               -3.280950           -0.847399           -1.019108
C                0.546908           -1.528193            0.503317
P                1.678527           -0.323450           -0.226358
O                2.894532           -1.156585           -0.736542
O                1.965648            0.694225            0.858645
O                0.856855            0.380743           -1.290246
H                3.593369           -0.694254           -1.211294
Ca               0.072415            1.727769            0.274986
H               -2.677162            1.310628           -1.084565
H               -0.305505           -0.680666            2.152649
H               -2.481764           -0.812541            1.772354
H               -1.978443           -2.149875            0.750912
H                1.017396           -2.206320            1.216828
H                0.087458           -2.125320           -0.287075