18
 
C               -2.129471            0.175641            0.030446
C               -1.700899           -0.866504            1.034633
N               -0.950859           -1.947422            0.435039
O               -3.113776           -0.197084           -0.739990
O               -1.574263            1.263057           -0.112562
C                0.013579           -1.653450           -0.603607
P                1.353967           -0.517942           -0.121720
O                2.601827           -1.465490           -0.073030
O                1.074403            0.189436            1.196304
O                1.447175            0.583594           -1.168953
H                3.432252           -1.084324            0.230314
Ca               0.541568            2.062210            0.166489
H               -3.307614            0.486966           -1.401238
H               -1.548061           -2.714487            0.163770
H               -1.107079           -0.368123            1.801628
H               -2.594097           -1.282861            1.502747
H                0.480794           -2.590230           -0.913219
H               -0.423203           -1.212277           -1.516251