18
 
C               -2.583564            0.420412            0.204599
C               -1.494770            1.441556           -0.003422
N               -0.421382            0.980781           -0.882278
O               -2.105687           -0.913820            0.075149
O               -3.704796            0.605884            0.488563
C                0.935018            1.570277           -0.638447
P                1.791354            0.200371            0.200505
O                1.708803           -0.973448           -0.790873
O                0.867117           -0.161939            1.349871
O                3.220107            0.700736            0.531936
Zn              -0.150540           -1.082727           -0.195915
H                3.842880            0.089577            0.943166
H               -2.821566           -1.527412            0.308755
H               -0.678729            1.108626           -1.854138
H               -1.975089            2.366087           -0.333137
H               -1.076137            1.626795            0.992898
H                1.403569            1.816749           -1.590581
H                0.876196            2.477570           -0.034673