18
 
C               -2.404356            0.263781            0.181406
C               -1.498876            1.431182           -0.125391
N               -0.378514            1.022718           -0.954645
O               -3.577316            0.609163            0.593575
O               -2.070642           -0.920054            0.075625
C                0.969121            1.583823           -0.640231
P                1.763078            0.202769            0.236817
O                3.192115            0.681293            0.608960
O                1.707441           -0.979669           -0.748611
O                0.798823           -0.133591            1.354516
H                3.780295            0.064774            1.060503
Zn              -0.160916           -1.110633           -0.236481
H               -4.112995           -0.165899            0.835022
H               -0.588644            1.151747           -1.936149
H               -2.100549            2.241190           -0.547233
H               -1.135873            1.780633            0.848468
H                1.487130            1.825904           -1.567640
H                0.902825            2.490240           -0.035488