18
 
C               -2.730638            0.325620           -0.041790
C               -1.700048            1.407685            0.151939
N               -0.437956            0.802331            0.395276
O               -3.955053            0.744173           -0.106376
O               -2.456543           -0.878853           -0.139244
C                0.778375            1.460154            0.019607
P                2.062003            0.174078           -0.050929
O                2.945932            0.580740           -1.263671
O                1.441289           -1.207095           -0.156191
O                3.026492            0.246008            1.181248
H                3.823055            0.186840           -1.344340
H                2.894555           -0.404446            1.879390
H               -4.567303            0.002887           -0.243544
Zn              -0.472799           -1.043538            0.028777
H               -1.739680            2.024849           -0.764832
H               -2.078128            2.063518            0.953178
H                0.752460            1.936033           -0.975641
H                1.131586            2.228452            0.724816