18
 
C                1.697634            0.872819           -0.026469
C                1.189064            2.291340           -0.111818
N               -0.231621            2.250336            0.152150
O                1.703230            0.278768            1.093514
O                1.824650            0.202087           -1.093893
C               -1.098547            1.445723           -0.657978
P               -1.605863           -0.188416           -0.025531
O               -1.961826            0.165621            1.451125
O               -0.659714           -1.367829           -0.140878
O               -2.939267           -0.547478           -0.755677
H               -2.391268           -0.493005            2.009570
H               -2.950170           -1.349106           -1.291091
Zn               1.224672           -1.324171            0.024949
H               -0.468631            2.266542            1.133365
H                1.667269            2.925968            0.632661
H                1.386665            2.691486           -1.107375
H               -2.066253            1.944756           -0.806890
H               -0.673987            1.303741           -1.656732