18
 
C                1.580037            0.937699            0.030685
C                1.022431            2.328344           -0.099793
N               -0.417763            2.191854            0.126281
O                1.898891            0.294814           -1.011447
O                1.478814            0.335375            1.137406
C               -1.142002            1.328753           -0.796451
P               -1.549925           -0.268200           -0.011412
O               -1.662338            0.050853            1.505075
O               -0.607720           -1.429312           -0.284928
O               -2.959707           -0.639542           -0.544319
H               -1.159344            0.856292            1.736960
H               -3.187920           -1.573954           -0.615608
Zn               1.248456           -1.293163           -0.001275
H               -0.848873            3.103425            0.186921
H                1.435404            2.975483            0.674623
H                1.273739            2.725899           -1.088550
H               -2.114156            1.765433           -1.040927
H               -0.625624            1.156062           -1.748891