18
 
C               -2.503954            0.587754            0.222212
C               -1.371400            1.390229           -0.359331
N               -0.439186            0.599843           -1.181425
O               -2.147179           -0.783417            0.387084
O               -3.553774            0.961452            0.578087
C                0.989062            1.059334           -1.154011
P                1.952139            0.257260            0.196920
O                1.150530            0.843666            1.464401
O                3.369407            0.547832            0.156349
O                1.476647           -1.231576            0.122245
H                1.726033            1.157035            2.172551
Zn              -0.308013           -1.213895           -0.197636
H               -2.855690           -1.247364            0.864008
H               -0.768720            0.583982           -2.141527
H               -1.802430            2.237315           -0.896319
H               -0.820212            1.792022            0.500066
H                1.456392            0.761207           -2.093953
H                1.049961            2.147301           -1.078135