18
 
C               -2.137195            0.146803           -0.043922
C               -1.529267            1.081852            0.968506
N               -0.715080            2.108651            0.367670
O               -3.095108            0.643992           -0.748260
O               -1.785980           -1.035764           -0.197901
C                0.387816            1.815810           -0.519569
P                1.496971            0.405000           -0.130302
O                2.937152            0.994922           -0.188438
O                1.231329           -0.712173           -1.155934
O                1.099459           -0.227970            1.214548
H                3.683156            0.383191           -0.168023
Zn               0.058613           -1.532019            0.168265
H               -3.439551           -0.003655           -1.387588
H               -0.501522            2.830029            1.038014
H               -2.367832            1.574971            1.468904
H               -1.011904            0.461780            1.712052
H                0.015553            1.589933           -1.527900
H                0.991745            2.717929           -0.624777