18
 
C                2.730902            0.317198           -0.049191
C                1.701798            1.414501            0.035643
N                0.433147            0.826521            0.277673
O                3.959041            0.725672           -0.112739
O                2.453115           -0.890055           -0.062561
C               -0.782657            1.468347           -0.120602
P               -2.059768            0.177721           -0.045467
O               -2.747122            0.402818            1.332075
O               -1.444001           -1.199664           -0.218595
O               -3.189835            0.406835           -1.101751
H               -3.524012           -0.126309            1.549262
H               -3.142071           -0.108568           -1.914595
H                4.570476           -0.026272           -0.174334
Zn               0.462293           -1.040054            0.070834
H                2.056687            2.121220            0.803852
H                1.774745            1.968866           -0.918604
H               -1.115814            2.289263            0.532019
H               -0.774139            1.866838           -1.150861