18
 
C                2.618983            0.193870           -0.178544
C                1.525246            1.220640           -0.081243
N                0.455520            0.838970            0.838686
O                2.133948           -1.126577            0.036594
O                3.749832            0.359126           -0.441697
C               -0.881153            1.450333            0.534867
P               -1.764234            0.022995           -0.153439
O               -3.165262            0.524141           -0.596108
O               -1.717876           -1.021576            0.952949
O               -0.825075           -0.500524           -1.228624
H               -3.807936           -0.123143           -0.908170
Mg               0.127549           -1.341311            0.322208
H                2.886861           -1.720864           -0.112876
H                0.718274            1.084647            1.786562
H                1.995341            2.179928            0.149671
H                1.106601            1.297198           -1.091916
H               -1.344948            1.799752            1.456674
H               -0.792896            2.294714           -0.151049