18
 
C               -1.998918            0.157847           -0.025800
C               -1.823860            1.648785           -0.131587
N               -0.440219            1.967583            0.155368
O               -1.989024           -0.550357           -1.077866
O               -1.884039           -0.406953            1.104180
C                0.601323            1.396654           -0.648385
P                1.450833           -0.085164           -0.025288
O                2.803904           -0.189254           -0.806360
O                0.729711           -1.408500           -0.071689
O                1.807758            0.364816            1.426722
H                2.927251           -0.958806           -1.372352
H                2.405208           -0.176179            1.955259
Mg              -1.109835           -1.875446            0.065534
H               -0.227582            2.022466            1.140745
H               -2.087280            1.979755           -1.137892
H               -2.455443            2.166156            0.589929
H                0.229183            1.170452           -1.652860
H                1.427980            2.108173           -0.782761