18
 
C                1.909552            0.169072            0.027595
C                1.736969            1.657503           -0.107273
N                0.325776            1.940928            0.147684
O                1.651467           -0.386633            1.134023
O                2.087794           -0.541196           -1.002786
C               -0.622094            1.339489           -0.779524
P               -1.415025           -0.111308           -0.020081
O               -1.510000            0.235989            1.494872
O               -0.741206           -1.439814           -0.260304
O               -2.861829           -0.130137           -0.590519
H               -0.786697            0.835298            1.762144
H               -3.308779           -0.981368           -0.656349
Mg               1.078077           -1.903311            0.006656
H                0.176839            2.936890            0.223519
H                2.333755            2.168367            0.649757
H                2.067778            1.966049           -1.105182
H               -1.444761            2.029860           -0.984334
H               -0.186486            1.065702           -1.749077