18
 
C                2.442823            0.025824           -0.129908
C                1.548900            1.225932            0.033191
N                0.414545            0.915783            0.889460
O                3.621758            0.309423           -0.581018
O                2.083506           -1.124130            0.116023
C               -0.906916            1.484688            0.484807
P               -1.732978            0.015532           -0.181896
O               -3.124775            0.480216           -0.697080
O               -1.727474           -0.995574            0.955917
O               -0.749196           -0.529170           -1.202863
H               -3.744022           -0.191995           -1.002959
Mg               0.134540           -1.366407            0.401598
H                4.145978           -0.496354           -0.724073
H                0.615478            1.184887            1.844409
H                2.148503            2.078388            0.365538
H                1.199580            1.465817           -0.978058
H               -1.425569            1.872942            1.360833
H               -0.800968            2.294956           -0.239009