18
 
C                2.128479           -0.014999           -0.002739
C                1.627003            0.979984            1.017221
N                0.803138            2.028843            0.464705
O                3.083516            0.420986           -0.765272
O                1.659051           -1.148895           -0.154526
C               -0.191788            1.754000           -0.549998
P               -1.411392            0.470786           -0.122670
O               -2.772044            1.230271           -0.138494
O               -1.071254           -0.214227            1.203718
O               -1.308524           -0.658079           -1.156721
H               -3.577973            0.718399           -0.003826
Mn              -0.268663           -1.756693            0.163390
H                3.332790           -0.244658           -1.428519
H                1.337111            2.852502            0.232418
H                1.085121            0.424846            1.784796
H                2.497140            1.442161            1.486457
H               -0.741471            2.676688           -0.746503
H                0.224649            1.429331           -1.518999