12
 
N               -0.922126            1.649028           -0.000061
C                0.587628            1.633685           -0.000087
P                0.942036           -0.139219            0.000066
O                2.480251           -0.305213            0.000056
O                0.177490           -0.672798           -1.211296
O                0.177419           -0.672585            1.211453
H                2.860843           -1.191737           -0.000799
Mn              -1.447641           -0.538082           -0.000024
H               -1.252980            2.161464           -0.811829
H                0.976672            2.134284           -0.885972
H                0.976751            2.134519            0.885632
H               -1.252946            2.161293            0.811829