12
 
N               -1.170801            1.344252           -0.019001
C                0.245025            1.509530           -0.296179
P                1.059857           -0.074942           -0.007040
O                2.281363           -0.296667           -0.954280
O                0.039306           -1.183890           -0.145019
O                1.681084            0.049911            1.413789
H                2.134672           -0.792907           -1.767224
H                2.293896           -0.633080            1.711947
Mn              -1.806600           -0.430370            0.018682
H                0.464508            1.808526           -1.332380
H                0.730414            2.247821            0.353496
H               -1.644895            2.231251            0.066877