12
 
N                2.964711           -0.436875           -0.244576
C                1.824201           -0.832838            0.563318
P                0.433869            0.208134            0.069413
O               -0.638844            0.405406            1.161482
O               -0.397736           -0.399857           -1.089882
O                1.086993            1.561966           -0.318427
Mn              -2.042776           -0.201142           -0.060025
H                2.038036            1.415828           -0.513602
H                3.033212           -0.970411           -1.101562
H                1.542453           -1.889756            0.508651
H                2.009599           -0.599907            1.615331
H                3.836566           -0.534188            0.257346