12
 
N                3.097127           -0.357674           -0.222661
C                1.928404           -0.905679            0.433703
P                0.524231            0.187254            0.065895
O               -0.524219            0.266110            1.209712
O               -0.336907           -0.305517           -1.137404
O                1.168864            1.571107           -0.201377
Zn              -1.887589           -0.151481           -0.051284
H                2.131593            1.451266           -0.362603
H                3.275945           -0.782019           -1.123121
H                1.667351           -1.932948            0.161837
H                2.046983           -0.875917            1.519609
H                3.930109           -0.440583            0.343335