12
 
N                3.237752           -0.992600           -0.190114
C                2.231296           -0.631865            0.772599
P                0.865419            0.315782            0.082298
O               -0.182254            0.718128            1.111514
O                0.134612           -0.486452           -0.998716
O                1.472243            1.643502           -0.523455
Sr              -1.938135           -0.190887           -0.034326
H                1.990842            1.534454           -1.327016
H                3.864928           -0.243474           -0.438921
H                1.808822           -1.527007            1.242813
H                2.672182           -0.044687            1.582313
H                2.882195           -1.464370           -1.008817