12
 
N               -0.059745            1.969340            0.101778
C                1.345710            1.505738           -0.120138
P                1.382391           -0.311619           -0.134080
O                0.485471           -0.579939            1.276245
O                2.691384           -0.927032           -0.054179
O                0.290047           -0.671037           -1.133144
H                1.025420           -0.923466            1.996302
Sr              -1.592416           -0.228182           -0.018898
H               -0.256566            2.735421           -0.534553
H                1.700515            1.846114           -1.094032
H                2.027292            1.906818            0.631286
H               -0.111971            2.384580            1.027321