12
 
N               -1.633215            1.083175            0.000036
C               -0.188111            1.542085           -0.000278
P                0.706077           -0.032901            0.000035
O                2.219519            0.293928            0.000136
O                0.134734           -0.770103           -1.205642
O                0.134489           -0.769787            1.205782
H                2.856080           -0.430558           -0.000228
Mg              -1.386392           -1.099290           -0.000061
H               -2.100329            1.484673           -0.807649
H                0.020251            2.139539           -0.886864
H                0.020502            2.140232            0.885782
H               -2.099723            1.484067            0.808378