18
 
C               -0.268763            1.741865            0.069180
C                1.106791            2.262280            0.390757
N                2.122106            1.879977           -0.559214
O               -0.550609            1.343728           -1.090723
O               -1.074430            1.606033            1.032509
C                2.220987            0.529485           -1.036335
P                1.887545           -0.858395            0.079215
O                2.713734           -2.061614           -0.519068
O                0.452453           -1.253448            0.247508
O                2.593679           -0.433307            1.414321
H                2.223710           -2.880703           -0.642086
H                2.602759           -1.061172            2.144555
Ba              -1.956961           -0.453846           -0.040108
H                3.021518            2.251924           -0.298859
H                1.040265            3.355112            0.419251
H                1.316013            1.944795            1.422850
H                1.549611            0.355701           -1.887457
H                3.235299            0.352907           -1.403938