18
 
C               -3.624147           -0.440953           -0.112348
C               -2.322938           -0.803927            0.568720
N               -1.173085           -0.191751           -0.085257
O               -4.669801           -0.788739            0.625570
O               -3.677355            0.062505           -1.196756
C               -1.093705            1.270750            0.169668
P                0.663491            1.648046            0.056519
O                1.177574            1.001238           -1.215334
O                1.338597            0.963943            1.231571
O                0.721643            3.211587            0.085109
Ba               1.684841           -1.121871           -0.040669
H                1.588748            3.623697            0.152284
H               -5.478913           -0.576255            0.136088
H               -1.340177           -0.275427           -1.088752
H               -2.357153           -0.521949            1.623015
H               -2.247200           -1.896658            0.545065
H               -1.707060            1.849243           -0.525117
H               -1.430657            1.484212            1.186397