18
 
C                2.563766           -0.871943           -0.122886
C                1.491253           -1.887881            0.137509
N                0.451774           -1.389133            1.018844
O                3.695401           -1.417504           -0.490050
O                2.401424            0.332780           -0.050292
C               -0.857859           -2.038994            0.795014
P               -1.787716           -0.835286           -0.182208
O               -0.881129           -0.387185           -1.308590
O               -2.078937            0.343840            0.718301
O               -3.063970           -1.630714           -0.635294
Ba               0.031827            1.546210            0.050251
H               -3.830218           -1.106344           -0.887843
H                4.339062           -0.726190           -0.711110
H                0.732493           -1.523926            1.982323
H                1.051115           -2.084374           -0.848504
H                1.949347           -2.826940            0.466723
H               -0.767651           -3.014625            0.308350
H               -1.368431           -2.188989            1.746803