18
 
C               -2.425912           -0.520212           -0.155444
C               -1.323465           -1.317917            0.486745
N               -0.366368           -0.431951            1.075866
O               -3.489261           -1.220499           -0.420153
O               -2.313831            0.663780           -0.434427
C                0.955209           -0.947958            1.233261
P                1.862051           -0.406421           -0.256959
O                1.580502            1.196132           -0.110026
O                1.366202           -1.000435           -1.486277
O                3.394018           -0.491213            0.054174
H                2.174282            1.770617           -0.612097
H                3.895335           -1.089277           -0.514849
H               -4.149191           -0.676116           -0.879968
Cu              -0.505686            1.350386            0.131131
H               -1.734373           -2.012182            1.233035
H               -0.884036           -1.948286           -0.305450
H                1.441717           -0.510061            2.109990
H                1.018938           -2.041531            1.276165