18
 
C                2.658756           -0.604935            0.138410
C                1.445655           -1.401552           -0.276789
N                0.443807           -0.606857           -0.915169
O                2.374522            0.745203            0.264061
O                3.728197           -1.035308            0.382094
C               -0.869620           -1.188484           -0.994149
P               -1.923945           -0.215858            0.124254
O               -3.428372           -0.393828           -0.242232
O               -1.490473            1.213388            0.127305
O               -1.724812           -0.990788            1.467038
H               -3.849899            0.331051           -0.720036
H               -2.228307           -0.705068            2.239574
H                3.173020            1.205358            0.567985
Cu               0.445077            1.273871           -0.126887
H                1.793463           -2.201349           -0.946619
H                1.072627           -1.920704            0.623143
H               -1.271031           -1.056219           -2.006236
H               -0.925826           -2.248965           -0.726680