18
 
C               -2.362178           -0.257589           -0.202302
C               -1.492689           -1.431001            0.169031
N               -0.369998           -1.032567            1.003805
O               -3.527041           -0.599656           -0.648058
O               -2.014628            0.920101           -0.117768
C                0.968770           -1.576075            0.669224
P                1.725819           -0.211633           -0.254493
O                1.668619            0.995999            0.704275
O                0.753071            0.136334           -1.361500
O                3.151473           -0.671774           -0.649251
Cu              -0.154571            1.143218            0.282961
H                3.683559           -0.098796           -1.214932
H               -4.037903            0.177910           -0.930334
H               -0.575014           -1.161717            1.985784
H               -2.121107           -2.205103            0.618757
H               -1.130286           -1.838533           -0.781393
H                1.521956           -1.786777            1.584259
H                0.908693           -2.497879            0.085439