18
 
C                2.846214            0.518666            0.006924
C                1.669676            1.464348           -0.025937
N                0.451178            0.829499           -0.421516
O                2.440851           -0.810433            0.101587
O                3.986871            0.807021            0.006627
C               -0.759260            1.440598            0.054906
P               -2.051661            0.165910            0.033802
O               -2.998813            0.643579            1.169082
O               -1.433229           -1.186206            0.207090
O               -2.896509            0.265598           -1.280458
H               -3.885493            0.268238            1.228529
H               -2.777345           -0.443639           -1.922426
H                3.227125           -1.376084            0.163506
Cu               0.479651           -1.150824            0.013535
H                1.619015            1.942067            0.966164
H                1.930845            2.270157           -0.727180
H               -0.685095            1.834871            1.079884
H               -1.055420            2.285012           -0.584209