18
 
C               -2.540582            0.423507            0.230429
C               -1.472912            1.445306           -0.067339
N               -0.403437            0.969018           -0.940775
O               -2.057690           -0.896405            0.141368
O               -3.649863            0.624135            0.554767
C                0.947282            1.544898           -0.693442
P                1.755164            0.213323            0.237750
O                1.638043           -1.000188           -0.717958
O                0.857218           -0.116035            1.402074
O                3.206432            0.672105            0.520137
Cu              -0.162918           -1.127480           -0.252594
H                3.747371            0.155800            1.130476
H               -2.751683           -1.509896            0.433289
H               -0.657368            1.064610           -1.917106
H               -1.975508            2.338861           -0.446250
H               -1.042913            1.700762            0.907430
H                1.453728            1.725959           -1.641111
H                0.891755            2.486685           -0.143319