18
 
C               -2.393344           -0.430670            0.156746
C               -1.421394           -1.548393           -0.145648
N               -0.347065           -1.164860           -1.021566
O               -3.533437           -0.890502            0.571945
O               -2.161440            0.763740            0.046501
C                0.970235           -1.537083           -0.858783
P                1.996315           -0.145264            0.178315
O                1.458396            1.138326           -0.387408
O                3.371413           -0.603659            0.069055
O                1.307399           -0.360067            1.598489
Cu              -0.371992            1.413282           -0.172835
H                1.881729           -0.815854            2.227922
H               -4.134852           -0.165551            0.813561
H               -0.593103           -0.688700           -1.881311
H               -1.005864           -1.884178            0.810718
H               -1.984351           -2.394763           -0.557169
H                1.107852           -2.421046           -0.235591
H                1.529471           -1.567934           -1.792225