18
 
C               -2.125349            0.084980           -0.052942
C               -1.553748            1.010889            0.987441
N               -0.754879            2.061249            0.407709
O               -3.081664            0.574959           -0.765314
O               -1.734720           -1.081066           -0.223488
C                0.340797            1.790834           -0.493400
P                1.470684            0.397901           -0.126424
O                2.898829            0.999187           -0.266768
O                1.177246           -0.743408           -1.133508
O                1.154068           -0.257520            1.221109
H                3.657509            0.404281           -0.222149
Co               0.102286           -1.588809            0.191770
H               -3.397985           -0.069214           -1.422444
H               -0.541725            2.770776            1.090619
H               -2.405950            1.478034            1.489647
H               -1.029080            0.387357            1.722895
H               -0.036988            1.572609           -1.501921
H                0.936115            2.699312           -0.594876