18
 
C               -1.692462            0.833430           -0.022689
C               -1.213880            2.252589           -0.110278
N                0.210782            2.244871            0.149318
O               -1.676203            0.217456            1.088382
O               -1.831127            0.143524           -1.079447
C                1.077790            1.433946           -0.652466
P                1.566740           -0.204526           -0.023273
O                2.871171           -0.572256           -0.799161
O                0.605535           -1.376293           -0.103166
O                1.950952            0.146816            1.446938
H                2.896008           -1.423410           -1.251069
H                2.315799           -0.534680            2.023307
Co              -1.282211           -1.381641            0.022420
H                0.450241            2.270565            1.129886
H               -1.422135            2.649379           -1.105808
H               -1.703500            2.880192            0.633458
H                0.663981            1.297768           -1.656586
H                2.051441            1.924518           -0.790434