18
 
C                1.552724            0.926763            0.044142
C                0.981268            2.303069           -0.134381
N               -0.450813            2.177549            0.123456
O                1.910983            0.251252           -0.977910
O                1.459392            0.337268            1.149129
C               -1.191011            1.312394           -0.780591
P               -1.510563           -0.307803           -0.012796
O               -1.630908           -0.028335            1.510935
O               -0.503471           -1.402736           -0.325758
O               -2.906797           -0.743420           -0.532203
H               -1.115187            0.755542            1.779098
H               -3.083203           -1.686473           -0.629742
Co               1.350933           -1.329144           -0.004453
H               -0.880566            3.088371            0.196726
H                1.410704            2.981349            0.604510
H                1.216875            2.662171           -1.142553
H               -2.186293            1.724126           -0.969031
H               -0.714855            1.170423           -1.759574