18
 
C                2.126151            0.066442           -0.029813
C                1.553772            1.008549            1.005090
N                0.700618            2.044273            0.482162
O                3.085317            0.552943           -0.747492
O                1.715781           -1.089485           -0.225065
C               -0.335074            1.787711           -0.495934
P               -1.460112            0.409460           -0.114961
O               -2.875229            1.039574           -0.241159
O               -1.145143           -0.261945            1.222042
O               -1.192071           -0.723751           -1.136540
H               -3.642709            0.458985           -0.169770
Co              -0.120034           -1.599112            0.172594
H                3.383636           -0.085836           -1.418251
H                1.202779            2.892220            0.268290
H                1.023863            0.407073            1.746899
H                2.395819            1.487390            1.508402
H               -0.944635            2.689280           -0.588829
H                0.041180            1.560185           -1.507846