12
 
N               -2.804593           -0.803689           -0.360635
C               -1.856917           -0.673315            0.709816
P               -0.492889            0.303487            0.078934
O                0.290358           -0.365194           -1.078951
O                0.667379            0.478576            1.116447
O               -1.166873            1.646740           -0.312749
Co               1.887325           -0.281694           -0.061924
H               -0.718417            2.263099           -0.902507
H               -3.499295           -0.071855           -0.372872
H               -2.213508           -0.202874            1.636616
H               -1.437270           -1.642589            0.990047
H               -3.249201           -1.707607           -0.395768