12
 
N                2.808240           -0.987706           -0.217751
C                1.862912           -0.603966            0.778836
P                0.497859            0.350029            0.085935
O                1.195732            1.631856           -0.452427
O               -0.682325            0.634647            1.058343
O               -0.261522           -0.423035           -1.033127
H                0.709327            2.255228           -1.003971
Co              -1.873915           -0.311235           -0.048561
H                3.352865           -0.231946           -0.605214
H                1.427321           -1.476467            1.274883
H                2.331683            0.000135            1.560524
H                2.456392           -1.604038           -0.935184