12
 
N               -1.049682            1.510718            0.101967
C                0.427379            1.617909           -0.182408
P                1.128315           -0.063212           -0.093269
O                0.334131           -0.467621            1.326406
O                2.558428           -0.239331           -0.094314
O                0.169031           -0.858861           -1.045431
H                0.764619           -1.165280            1.840745
Co              -1.336434           -0.514611           -0.052032
H               -1.574460            2.120279           -0.519284
H                0.577075            1.997210           -1.193731
H                0.915275            2.297832            0.515748
H               -1.232742            1.836644            1.047828