12
 
N                3.058182           -0.336642           -0.158837
C                1.835279           -0.978856            0.290014
P                0.466697            0.188743            0.046900
O               -0.585030            0.195298            1.189221
O               -0.457952           -0.166075           -1.155214
O                1.158499            1.560343           -0.108671
Co              -1.967167           -0.166124           -0.040946
H                2.132007            1.403593           -0.190596
H                3.342313           -0.642963           -1.079916
H                1.598280           -1.926835           -0.201384
H                1.869934           -1.174777            1.365007
H                3.827416           -0.491717            0.478008