12
 
N               -1.089914            1.322587            0.055287
C                0.312915            1.501157           -0.234344
P                1.196556           -0.033569            0.137597
O                0.127795           -1.070937           -0.598359
O                1.404641           -0.368525            1.532743
O                2.424585           -0.067186           -0.831540
H                0.440707           -1.984656           -0.647078
H                3.271295           -0.264691           -0.410785
Co              -1.749745           -0.359548           -0.006025
H                0.482676            1.768966           -1.286886
H                0.766974            2.289398            0.376373
H               -1.571146            2.190452            0.263393